
 *******************************************************************************

         NASA-GLENN CHEMICAL EQUILIBRIUM PROGRAM CEA2, MAY 21, 2004
                   BY  BONNIE MCBRIDE AND SANFORD GORDON
      REFS: NASA RP-1311, PART I, 1994 AND NASA RP-1311, PART II, 1996

 *******************************************************************************



 prob case=_______________1512 hp
 p,atm= 0.125
 phi=0.01
  
  reac
  fuel C2F4              wt%=100.0000  t,k= 800.000
  oxid Air               wt%=100.0000  t,k= 180.000
  
  output  short
  output massf
  output siunits
  end




         THERMODYNAMIC EQUILIBRIUM COMBUSTION PROPERTIES AT ASSIGNED

                                   PRESSURES

 CASE = _______________

             REACTANT                    WT FRACTION      ENERGY      TEMP
                                          (SEE NOTE)     KJ/KG-MOL      K  
 FUEL        C2F4                         1.0000000   -608373.974    800.000
 OXIDANT     Air                          1.0000000     -3558.312    180.000

 O/F=  138.25339  %FUEL=  0.718115  R,EQ.RATIO= 0.021278  PHI,EQ.RATIO= 0.010000

 THERMODYNAMIC PROPERTIES

 P, BAR           0.12666
 T, K              232.12
 RHO, KG/CU M    1.9107-1
 H, KJ/KG         -165.65
 U, KJ/KG         -231.94
 G, KJ/KG        -1832.52
 S, KJ/(KG)(K)     7.1812

 M, (1/n)          29.114
 (dLV/dLP)t      -1.00000
 (dLV/dLT)p        1.0000
 Cp, KJ/(KG)(K)    0.9996
 GAMMAs            1.4000
 SON VEL,M/SEC      304.6

 MASS FRACTIONS

 *Ar              0.01282
 CF4              0.00632
 *CO2             0.00364
 *N2              0.74976
 *O2              0.22746

  * THERMODYNAMIC PROPERTIES FITTED TO 20000.K

 NOTE. WEIGHT FRACTION OF FUEL IN TOTAL FUELS AND OF OXIDANT IN TOTAL OXIDANTS



